.MODEL ST15100 D (
+LEVEL=1 TNOM=27 IS=1.18e-06 ISW=1e-18 RS=0.015075 N=1.02775
+BV=120 IBV=0.0001 CJO=2.04173e-09 VJ=0.5 MJ=0.5 FC=0.5
+CJSW=1e-10 VJSW=0.8 MJSW=0.3 FCSW=0.5 TT=0 KF=0 AF=1
+XTI=2 EG=1.17 TRS1=0.000927939 TRS2=0.00020275 )
