Version 4
SHEET 1 1472 1056
WIRE 624 -32 576 -32
WIRE -64 0 -224 0
WIRE 192 0 -64 0
WIRE 352 0 272 0
WIRE 576 16 576 -32
WIRE 512 48 464 48
WIRE 352 80 352 0
WIRE 464 96 464 48
WIRE 304 160 288 160
WIRE 64 176 48 176
WIRE 160 176 144 176
WIRE 176 176 160 176
WIRE 288 176 288 160
WIRE 288 176 256 176
WIRE -224 192 -224 0
WIRE -64 192 -64 0
WIRE 464 192 464 176
WIRE 160 208 160 176
WIRE 160 208 144 208
WIRE 288 256 288 176
WIRE 352 256 352 176
WIRE 400 256 352 256
WIRE 448 256 400 256
WIRE 592 256 448 256
WIRE 752 256 672 256
WIRE 880 256 752 256
WIRE 352 272 352 256
WIRE 752 288 752 256
WIRE 880 304 880 256
WIRE 528 336 448 336
WIRE 48 448 32 448
WIRE 144 448 128 448
WIRE 160 448 144 448
WIRE 272 448 240 448
WIRE 304 448 304 432
WIRE 304 448 272 448
WIRE 144 464 144 448
WIRE 144 464 128 464
WIRE -224 480 -224 272
WIRE -64 480 -64 256
WIRE -64 480 -224 480
WIRE -16 480 -64 480
WIRE 352 480 352 448
WIRE 528 480 528 400
WIRE 528 480 352 480
WIRE 752 480 752 352
WIRE 752 480 528 480
WIRE 880 480 880 384
WIRE 880 480 752 480
WIRE 128 528 128 464
WIRE 272 528 272 448
WIRE -16 560 -16 480
WIRE 352 560 352 480
WIRE 352 560 -16 560
WIRE 352 592 352 560
FLAG 352 592 0
FLAG 752 256 Vo
FLAG 400 256 Vsw
FLAG -224 0 Vi
FLAG 272 448 VgL
FLAG 288 176 VgH
FLAG 32 448 VdrvL
FLAG 48 176 VdrvHO
FLAG 576 96 Vsw
FLAG 464 192 0
FLAG 464 48 VdrvL
FLAG 624 -32 VdrvHO
SYMBOL ind 576 272 R270
WINDOW 0 32 56 VTop 2
WINDOW 3 5 56 VBottom 2
SYMATTR InstName L1
SYMATTR Value 60µ
SYMATTR SpiceLine Rser=5m
SYMBOL cap 736 288 R0
SYMATTR InstName C1
SYMATTR Value 470µ
SYMBOL cap -80 192 R0
WINDOW 0 -21 7 Left 2
WINDOW 3 -46 52 Left 2
SYMATTR InstName C2
SYMATTR Value 470µ
SYMBOL Res 272 160 R90
WINDOW 0 0 56 VBottom 2
WINDOW 3 32 56 VTop 2
SYMATTR InstName R1
SYMATTR Value 10
SYMBOL Res 256 432 R90
WINDOW 0 0 56 VBottom 2
WINDOW 3 32 56 VTop 2
SYMATTR InstName R2
SYMATTR Value 15
SYMBOL voltage 576 0 R0
SYMATTR InstName V1
SYMATTR Value PULSE(0 12 13500n 10n 10n 11500n 25000n)
SYMBOL voltage 464 80 R0
SYMATTR InstName V2
SYMATTR Value PULSE(0 12 500n 10n 10n 12500n 25000n)
SYMBOL voltage -224 176 R0
SYMATTR InstName V3
SYMATTR Value 70
SYMBOL res 864 288 R0
SYMATTR InstName R3
SYMATTR Value 1.3
SYMBOL schottky 544 400 R180
WINDOW 0 24 64 Left 2
WINDOW 3 -138 -2 Left 2
SYMATTR InstName D3
SYMATTR Value RB228NS150
SYMATTR Description Diode
SYMATTR Type diode
SYMBOL ind 48 192 R270
WINDOW 0 32 56 VTop 2
WINDOW 3 9 51 VBottom 2
SYMATTR InstName L2
SYMATTR Value 40n
SYMBOL ind 32 464 R270
WINDOW 0 32 56 VTop 2
WINDOW 3 9 51 VBottom 2
SYMATTR InstName L3
SYMATTR Value 40n
SYMBOL diode 192 512 R90
WINDOW 0 0 32 VBottom 2
WINDOW 3 32 32 VTop 2
SYMATTR InstName D4
SYMATTR Value 1N4148
SYMBOL Res 288 512 R90
WINDOW 0 0 56 VBottom 2
WINDOW 3 32 56 VTop 2
SYMATTR InstName R4
SYMATTR Value 3
SYMBOL diode 208 240 R90
WINDOW 0 0 32 VBottom 2
WINDOW 3 32 32 VTop 2
SYMATTR InstName D2
SYMATTR Value 1N4148
SYMBOL Res 304 240 R90
WINDOW 0 0 56 VBottom 2
WINDOW 3 32 56 VTop 2
SYMATTR InstName R5
SYMATTR Value 7
SYMBOL TK3R2A08QM 304 352 R0
WINDOW 3 -210 -3 Left 2
SYMATTR InstName U2
SYMBOL TK3R2A08QM 304 80 R0
WINDOW 3 -201 -10 Left 2
SYMATTR InstName U1
SYMBOL ind 336 256 R0
SYMATTR InstName L4
SYMATTR Value 2n
SYMATTR SpiceLine Rser=10u Rpar=1 Cpar=100p
SYMBOL ind 176 16 R270
WINDOW 0 32 56 VTop 2
WINDOW 3 5 56 VBottom 2
SYMATTR InstName L5
SYMATTR Value 1n
SYMATTR SpiceLine Rser=10u Rpar=1 Cpar=100p
SYMBOL ind 432 240 R0
SYMATTR InstName L6
SYMATTR Value 10n
SYMATTR SpiceLine Rser=10u Rpar=1 Cpar=100p
TEXT -192 536 Left 2 !.tran 9000u
TEXT -784 48 Left 2 !.inc CSD19506KCS.lib\n.inc STP110N8F6_V2.lib\n.inc TK7R0E08QM_G0_00_PSpice_rev1.lib
