Version 4
SHEET 1 1140 1056
WIRE -16 0 -224 0
WIRE 352 0 -16 0
WIRE 352 32 352 0
WIRE 176 112 144 112
WIRE 288 112 256 112
WIRE 304 112 288 112
WIRE -224 192 -224 0
WIRE -16 192 -16 0
WIRE 352 208 352 128
WIRE 1088 224 960 224
WIRE 352 256 352 208
WIRE 592 256 352 256
WIRE 832 256 672 256
WIRE 960 256 960 224
WIRE 960 256 832 256
WIRE 352 288 352 256
WIRE 832 288 832 256
WIRE 960 304 960 256
WIRE 160 368 128 368
WIRE 288 368 240 368
WIRE 304 368 288 368
WIRE -224 480 -224 272
WIRE -16 480 -16 256
WIRE -16 480 -224 480
WIRE 352 480 352 384
WIRE 352 480 -16 480
WIRE 528 480 528 400
WIRE 528 480 352 480
WIRE 832 480 832 352
WIRE 832 480 528 480
WIRE 960 480 960 384
WIRE 960 480 832 480
WIRE 352 512 352 480
WIRE -272 688 -352 688
WIRE -112 688 -208 688
WIRE 464 688 416 688
WIRE 416 736 416 688
WIRE -112 752 -112 688
WIRE -80 752 -112 752
WIRE -352 768 -352 688
WIRE -352 768 -608 768
WIRE -304 768 -352 768
WIRE -272 768 -304 768
WIRE -112 768 -112 752
WIRE -112 768 -144 768
WIRE 0 832 -144 832
WIRE -480 848 -480 832
WIRE -304 896 -304 768
WIRE -272 896 -304 896
WIRE -80 896 -80 816
WIRE -80 896 -144 896
WIRE 464 896 416 896
WIRE 416 944 416 896
WIRE -608 960 -608 848
WIRE -480 960 -480 928
WIRE -480 960 -608 960
WIRE -400 960 -480 960
WIRE -272 960 -400 960
WIRE 0 960 -144 960
WIRE -400 992 -400 960
WIRE 416 1040 416 1024
FLAG 352 512 0
FLAG 832 256 Vo
FLAG 352 208 Vsw
FLAG -224 0 Vi
FLAG 288 368 VgL
FLAG 288 112 VgH
FLAG -400 992 0
FLAG 128 368 VdrvL
FLAG 144 112 VdrvHO
FLAG 416 816 Vsw
FLAG 416 1040 0
FLAG 464 896 VdrvL
FLAG 464 688 VdrvHO
DATAFLAG 1088 224 "$"
SYMBOL nmos 304 288 R0
WINDOW 0 65 46 Left 2
WINDOW 3 66 81 Left 2
SYMATTR InstName M2
SYMATTR Value IPB019N08N3
SYMBOL nmos 304 32 R0
SYMATTR InstName M1
SYMATTR Value AONS66811
SYMBOL ind 576 272 R270
WINDOW 0 32 56 VTop 2
WINDOW 3 5 56 VBottom 2
SYMATTR InstName L1
SYMATTR Value 60µ
SYMATTR SpiceLine Rser=5m
SYMBOL cap 816 288 R0
SYMATTR InstName C1
SYMATTR Value 470µ
SYMBOL cap -32 192 R0
SYMATTR InstName C2
SYMATTR Value 470µ
SYMBOL Res 272 96 R90
WINDOW 0 0 56 VBottom 2
WINDOW 3 32 56 VTop 2
SYMATTR InstName R1
SYMATTR Value 6
SYMBOL Res 256 352 R90
WINDOW 0 0 56 VBottom 2
WINDOW 3 32 56 VTop 2
SYMATTR InstName R2
SYMATTR Value 6
SYMBOL voltage 416 720 R0
SYMATTR InstName V1
SYMATTR Value PULSE(0 12 13500n 10n 10n 11500n 25000n)
SYMBOL voltage 416 928 R0
SYMATTR InstName V2
SYMATTR Value PULSE(0 12 500n 10n 10n 12500n 25000n)
SYMBOL voltage -224 176 R0
SYMATTR InstName V3
SYMATTR Value 70
SYMBOL IR2184 -208 848 R0
SYMATTR InstName U1
SYMBOL voltage -480 832 R0
WINDOW 3 -356 115 Left 2
SYMATTR Value PULSE(0 3.3 12600n 10n 10n 12500n 25000n 6)
SYMATTR InstName V4
SYMBOL voltage -608 752 R0
SYMATTR InstName V5
SYMATTR Value 0
SYMBOL cap -96 752 R0
SYMATTR InstName C3
SYMATTR Value 10µ
SYMBOL diode -272 704 R270
WINDOW 0 32 32 VTop 2
WINDOW 3 0 32 VBottom 2
SYMATTR InstName D1
SYMATTR Value 1N4148
SYMBOL res 944 288 R0
SYMATTR InstName R3
SYMATTR Value 1.3
SYMBOL schottky 544 400 R180
WINDOW 0 24 64 Left 2
WINDOW 3 -138 -2 Left 2
SYMATTR InstName D3
SYMATTR Value RB228NS150
SYMATTR Description Diode
SYMATTR Type diode
TEXT 560 -40 Left 2 !.tran 6000u
TEXT -576 656 Left 2 !.inc ir2184.lib
TEXT -784 48 Left 2 !.inc CSD19506KCS.lib
